flowchart TD
    0A <-- 3 --> 0D
    
    0D <-- X --> 0E
    0D <-- X --> 1D
    
    0E <-- X --> 1E
    
    0F <-- X --> 0I
    0F <-- X --> 1F

    %% 0I

    1C <-- X --> 1D
    1C <-- X --> 2C